test/fixtures/powermodels/case14_pwl/sol_ac_opf.json
{
  "termination_status": "LOCALLY_SOLVED",
  "objective": 7644.190584511605,
  "solution": {
    "baseMVA": 100,
    "branch": {
      "4": {
        "qf": 0.01586317367654465,
        "qt": -0.036052282527644176,
        "pt": -0.31051104794682843,
        "pf": 0.31586965642698545
      },
      "1": {
        "qf": -0.04441029301381238,
        "qt": 0.02399718770093987,
        "pt": -0.8385648722539834,
        "pf": 0.8510615436636485
      },
      "12": {
        "qf": 0.0159253911958421,
        "qt": -0.013501302161604969,
        "pt": -0.10078509373686519,
        "pf": 0.10194980498035895
      },
      "20": {
        "qf": -0.017116269914136076,
        "qt": 0.02731461624319002,
        "pt": -0.1716264509724172,
        "pf": 0.17663536809794186
      },
      "2": {
        "qf": 0.04441034447083049,
        "qt": -0.07264989729086724,
        "pt": -0.34468511801532653,
        "pf": 0.3508541338636074
      },
      "6": {
        "qf": 0.09050123376762759,
        "qt": -0.08279562208759263,
        "pt": 0.3509985414666632,
        "pf": -0.3427601051869175
      },
      "11": {
        "qf": -0.006511751769060653,
        "qt": 0.019165331153215694,
        "pt": -0.2612374961672539,
        "pf": 0.26727991431661136
      },
      "13": {
        "qf": 0.05288402649472187,
        "qt": -0.043673522193188936,
        "pt": -0.2721720101320002,
        "pf": 0.276849026018593
      },
      "5": {
        "qf": 0.03362256753770629,
        "qt": -0.06655266945493689,
        "pt": -0.15533505535477407,
        "pf": 0.1567569445769729
      },
      "15": {
        "qf": 0.10715731606126809,
        "qt": -0.10518214154453992,
        "pt": -0.08999321410594067,
        "pf": 0.08999321410594067
      },
      "16": {
        "qf": 0.10679621956182446,
        "qt": -0.1045264947262968,
        "pt": 0.13223851938185638,
        "pf": -0.13138408213903846
      },
      "14": {
        "qf": -0.09292672123805014,
        "qt": 0.09432145693371935,
        "pt": -9.752054651880063e-9,
        "pf": 9.752054651880063e-9
      },
      "7": {
        "qf": 0.09577291611754518,
        "qt": -0.07790658427027405,
        "pt": 0.6659414363653196,
        "pf": -0.6602773297359883
      },
      "8": {
        "qf": 0.01582232410362828,
        "qt": -0.014230594823217948,
        "pt": -0.08999322385799532,
        "pf": 0.08999322385799532
      },
      "17": {
        "qf": 0.07901708829132492,
        "qt": -0.07731461624319003,
        "pt": 0.022626450972417205,
        "pf": -0.021826091396862743
      },
      "19": {
        "qf": -0.0024986978383950316,
        "qt": 0.002789792107325021,
        "pt": -0.03946335796594167,
        "pf": 0.03978509373686518
      },
      "10": {
        "qf": 0.20110915101607818,
        "qt": -0.18066126132055882,
        "pt": 0.241921262995219,
        "pf": -0.241921262995219
      },
      "9": {
        "qf": 0.04625266439406334,
        "qt": -0.04385237913734822,
        "pt": -0.05179661235815813,
        "pf": 0.05179661235815813
      },
      "18": {
        "qf": 0.04652649472629681,
        "qt": -0.03716533115321569,
        "pt": 0.22623749616725386,
        "pf": -0.22223851938185638
      },
      "3": {
        "qf": 0.024316957559638853,
        "qt": -0.0019554907257976484,
        "pt": -0.5992399026373596,
        "pf": 0.6156049222302598
      }
    },
    "gen": {
      "4": {
        "qg": -0.043363595399055495,
        "pg": 1.0000000083107823,
        "pg_cost": 3100.000025619496
      },
      "1": {
        "qg": 5.1457018107831226e-8,
        "pg": 1.201915677527256,
        "pg_cost": 3066.4129660191957
      },
      "5": {
        "qg": 0.09432145693371935,
        "pg": -9.752054651880063e-9,
        "pg_cost": -4.9843213458986994e-5
      },
      "2": {
        "qg": 0.22479988647482965,
        "pg": 0.4666666509802348,
        "pg_cost": 1477.777674961199
      },
      "3": {
        "qg": 0.27854574304182994,
        "pg": -7.824277118381249e-9,
        "pg_cost": -3.2245072221818356e-5
      }
    },
    "multiinfrastructure": false,
    "multinetwork": false,
    "bus": {
      "4": {
        "va": -0.09579225636889555,
        "vm": 1.0242891022327953
      },
      "1": {
        "va": 3.250115606216408e-39,
        "vm": 1.0600000094776547
      },
      "12": {
        "va": -0.03789070544608536,
        "vm": 1.0445832811639097
      },
      "2": {
        "va": -0.04567585471023031,
        "vm": 1.046354544578664
      },
      "6": {
        "va": -0.016103288185290582,
        "vm": 1.060000009488803
      },
      "11": {
        "va": -0.06497749896747747,
        "vm": 1.0385126904673556
      },
      "13": {
        "va": -0.045744027096555596,
        "vm": 1.0366791821519936
      },
      "5": {
        "va": -0.06820511071372908,
        "vm": 1.0293490864225736
      },
      "14": {
        "va": -0.10697180037387782,
        "vm": 1.0152035120970093
      },
      "7": {
        "va": -0.11299933465073889,
        "vm": 1.0443257338190994
      },
      "8": {
        "va": -0.1129993362025431,
        "vm": 1.0600000023121499
      },
      "10": {
        "va": -0.10852930814139901,
        "vm": 1.0284871609225945
      },
      "9": {
        "va": -0.12217584550968641,
        "vm": 1.0330812042553021
      },
      "3": {
        "va": -0.15841555105893496,
        "vm": 1.0160216018494135
      }
    },
    "per_unit": true
  }
}

