test/fixtures/powermodels/case14_pwl/sol_ac_pf.json
{
  "termination_status": "LOCALLY_SOLVED",
  "objective": 0.0,
  "solution": {
    "baseMVA": 100,
    "gen": {
      "4": {
        "qg": 0.12730944407279635,
        "pg": 7.163168700323315e-39
      },
      "1": {
        "qg": -0.16549300541388007,
        "pg": 2.3239327235789866
      },
      "5": {
        "qg": 0.17623451368082063,
        "pg": 0.0
      },
      "2": {
        "qg": 0.4355710013951097,
        "pg": 0.4
      },
      "3": {
        "qg": 0.2507534849912195,
        "pg": 0.0
      }
    },
    "multiinfrastructure": false,
    "multinetwork": false,
    "bus": {
      "4": {
        "va": -0.1799940794937061,
        "vm": 1.017670853691765
      },
      "1": {
        "va": 0.0,
        "vm": 1.06
      },
      "12": {
        "va": -0.2631185865440948,
        "vm": 1.0551885631971039
      },
      "2": {
        "va": -0.08696258580158346,
        "vm": 1.045
      },
      "6": {
        "va": -0.24820233854144558,
        "vm": 1.07
      },
      "11": {
        "va": -0.25814505286457384,
        "vm": 1.0569065185403652
      },
      "13": {
        "va": -0.2645269244091768,
        "vm": 1.050381713628595
      },
      "5": {
        "va": -0.15313263861419374,
        "vm": 1.0195138598190607
      },
      "14": {
        "va": -0.27983988812901284,
        "vm": 1.035529945853566
      },
      "7": {
        "va": -0.23316948436482876,
        "vm": 1.0615195324909388
      },
      "8": {
        "va": -0.23316948436482876,
        "vm": 1.09
      },
      "10": {
        "va": -0.26349739180394416,
        "vm": 1.0509846249998478
      },
      "9": {
        "va": -0.2607263819810349,
        "vm": 1.055931720636972
      },
      "3": {
        "va": -0.22209489156810286,
        "vm": 1.01
      }
    },
    "per_unit": true
  }
}

