test/fixtures/powermodels/case14_pwl/sol_dc_opf.json
{
  "termination_status": "OPTIMAL",
  "objective": 7374.630319421288,
  "solution": {
    "baseMVA": 100,
    "branch": {
      "4": {
        "qf": null,
        "qt": null,
        "pt": -0.296909203862839,
        "pf": 0.296909203862839
      },
      "1": {
        "qf": null,
        "qt": null,
        "pt": -0.788950789975756,
        "pf": 0.788950789975756
      },
      "12": {
        "qf": null,
        "qt": null,
        "pt": -0.09454354019763837,
        "pf": 0.09454354019763837
      },
      "20": {
        "qf": null,
        "qt": null,
        "pt": -0.17111470793947078,
        "pf": 0.17111470793947078
      },
      "2": {
        "qf": null,
        "qt": null,
        "pt": -0.334382540024244,
        "pf": 0.334382540024244
      },
      "6": {
        "qf": null,
        "qt": null,
        "pt": 0.3419150782995862,
        "pf": -0.3419150782995862
      },
      "11": {
        "qf": null,
        "qt": null,
        "pt": -0.2569157423954764,
        "pf": 0.2569157423954764
      },
      "13": {
        "qf": null,
        "qt": null,
        "pt": -0.2725711677418324,
        "pf": 0.2725711677418324
      },
      "5": {
        "qf": null,
        "qt": null,
        "pt": -0.1416233344125026,
        "pf": 0.1416233344125026
      },
      "15": {
        "qf": null,
        "qt": null,
        "pt": -0.08957334445249035,
        "pf": 0.08957334445249035
      },
      "16": {
        "qf": null,
        "qt": null,
        "pt": 0.13191574239547618,
        "pf": -0.13191574239547618
      },
      "14": {
        "qf": null,
        "qt": null,
        "pt": 0.0,
        "pf": -0.0
      },
      "7": {
        "qf": null,
        "qt": null,
        "pt": 0.6639754241017997,
        "pf": -0.6639754241017997
      },
      "8": {
        "qf": null,
        "qt": null,
        "pt": -0.08957334445249035,
        "pf": 0.08957334445249035
      },
      "17": {
        "qf": null,
        "qt": null,
        "pt": 0.022114707939470724,
        "pf": -0.022114707939470724
      },
      "19": {
        "qf": null,
        "qt": null,
        "pt": -0.033543540197638375,
        "pf": 0.033543540197638375
      },
      "10": {
        "qf": null,
        "qt": null,
        "pt": 0.26396954966505304,
        "pf": -0.26396954966505304
      },
      "9": {
        "qf": null,
        "qt": null,
        "pt": -0.05139620521256292,
        "pf": 0.05139620521256292
      },
      "18": {
        "qf": null,
        "qt": null,
        "pt": 0.22191574239547598,
        "pf": -0.22191574239547598
      },
      "3": {
        "qf": null,
        "qt": null,
        "pt": -0.6000849217004144,
        "pf": 0.6000849217004144
      }
    },
    "gen": {
      "4": {
        "qg": null,
        "pg": 1.0000000000000002,
        "pg_cost": 3100.000000000001
      },
      "1": {
        "qg": null,
        "pg": 1.12333333,
        "pg_cost": 2796.8525414212872
      },
      "5": {
        "qg": null,
        "pg": -0.0,
        "pg_cost": 0.0
      },
      "2": {
        "qg": null,
        "pg": 0.46666666999999995,
        "pg_cost": 1477.777778
      },
      "3": {
        "qg": null,
        "pg": -0.0,
        "pg_cost": 0.0
      }
    },
    "multiinfrastructure": false,
    "multinetwork": false,
    "bus": {
      "4": {
        "va": -0.1097273741742724,
        "vm": 1.0
      },
      "1": {
        "va": -0.0,
        "vm": 1.0
      },
      "12": {
        "va": -0.04220006944424218,
        "vm": 1.0
      },
      "2": {
        "va": -0.051690121049736706,
        "vm": 1.0
      },
      "6": {
        "va": -0.012431614499960969,
        "vm": 1.0
      },
      "11": {
        "va": -0.07518468657274986,
        "vm": 1.0
      },
      "13": {
        "va": -0.05709523735945707,
        "vm": 1.0
      },
      "5": {
        "va": -0.07895722040654764,
        "vm": 1.0
      },
      "14": {
        "va": -0.13101204415991144,
        "vm": 1.0
      },
      "7": {
        "va": -0.12845895196617718,
        "vm": 1.0
      },
      "8": {
        "va": -0.12845895196617718,
        "vm": 1.0
      },
      "10": {
        "va": -0.1255863621387088,
        "vm": 1.0
      },
      "9": {
        "va": -0.13831291558939565,
        "vm": 1.0
      },
      "3": {
        "va": -0.17718198534113433,
        "vm": 1.0
      }
    },
    "per_unit": true
  }
}

