test/fixtures/powermodels/case14_pwl/sol_dc_pf.json
{
  "termination_status": "OPTIMAL",
  "objective": 0.0,
  "solution": {
    "baseMVA": 100,
    "gen": {
      "4": {
        "qg": null,
        "pg": -0.0
      },
      "1": {
        "qg": null,
        "pg": 2.1900000000000026
      },
      "5": {
        "qg": null,
        "pg": -0.0
      },
      "2": {
        "qg": null,
        "pg": 0.4
      },
      "3": {
        "qg": null,
        "pg": -0.0
      }
    },
    "multiinfrastructure": false,
    "multinetwork": false,
    "bus": {
      "4": {
        "va": -0.20069828881825133,
        "vm": 1.0
      },
      "1": {
        "va": -0.0,
        "vm": 1.0
      },
      "12": {
        "va": -0.3004136262559494,
        "vm": 1.0
      },
      "2": {
        "va": -0.09583946423098375,
        "vm": 1.0
      },
      "6": {
        "va": -0.27750052499242334,
        "vm": 1.0
      },
      "11": {
        "va": -0.29295263893069196,
        "vm": 1.0
      },
      "13": {
        "va": -0.3056406762427587,
        "vm": 1.0
      },
      "5": {
        "va": -0.17171116104664882,
        "vm": 1.0
      },
      "14": {
        "va": -0.32659290543237185,
        "vm": 1.0
      },
      "7": {
        "va": -0.2614540972236207,
        "vm": 1.0
      },
      "8": {
        "va": -0.2614540972236207,
        "vm": 1.0
      },
      "10": {
        "va": -0.2993715497428977,
        "vm": 1.0
      },
      "9": {
        "va": -0.2934153944820114,
        "vm": 1.0
      },
      "3": {
        "va": -0.24542407879256428,
        "vm": 1.0
      }
    },
    "per_unit": true
  }
}

